Circuit: * C:\Users\jcasa\Documents\projects\ArdaraClone\spice\Draft12.asc

Direct Newton iteration for .op point succeeded.

Date: Tue Dec 15 14:42:56 2015
Total elapsed time: 0.499 seconds.

tnom = 27
temp = 27
method = modified trap
totiter = 12861
traniter = 12821
tranpoints = 4085
accept = 3191
rejected = 894
matrix size = 46
fillins = 66
solver = Normal
Matrix Compiler1: 5.29 KB object code size  3.6/1.9/[0.6]
Matrix Compiler2: 5.08 KB object code size  1.1/1.7/[0.8]


