Circuit: * C:\Users\jcasa\Documents\projects\ArdaraClone\spice\Draft13.asc

Direct Newton iteration failed to find .op point.  (Use ".option noopiter" to skip.)
Starting Gmin stepping
Gmin = 10
Gmin = 1.07374
Gmin = 0.115292
Gmin = 0.0123794
Gmin = 0.00132923
Gmin = 0.000142725
Gmin = 1.5325e-005
Gmin = 1.6455e-006
Gmin = 1.76685e-007
Gmin = 1.89714e-008
Gmin = 2.03704e-009
Gmin = 2.18725e-010
Gmin = 2.34854e-011
Gmin = 2.52173e-012
Gmin = 2.70769e-013
Gmin = 0
Gmin stepping succeeded in finding the operating point.


Date: Fri Dec 18 16:29:51 2015
Total elapsed time: 35.451 seconds.

tnom = 27
temp = 27
method = modified trap
totiter = 2649473
traniter = 2648776
tranpoints = 803985
accept = 558614
rejected = 245371
matrix size = 56
fillins = 39
solver = Normal
Matrix Compiler1: 4.92 KB object code size  1.3/0.6/[0.4]
Matrix Compiler2: off  [0.5]/0.7/0.6


