Circuit: * C:\Users\jcasa\Documents\projects\ArdaraClone\spice\Draft11b.asc

Direct Newton iteration for .op point succeeded.

Date: Fri Dec 18 15:10:17 2015
Total elapsed time: 0.197 seconds.

tnom = 27
temp = 27
method = modified trap
totiter = 2256
traniter = 2224
tranpoints = 1058
accept = 1052
rejected = 6
matrix size = 68
fillins = 40
solver = Normal
Matrix Compiler1: 6.13 KB object code size  1.4/0.7/[0.5]
Matrix Compiler2: 6.32 KB object code size  0.6/0.6/[0.5]


