Circuit: * C:\Users\jcasa\Documents\projects\ArdaraClone\spice\Draft11.asc

Direct Newton iteration failed to find .op point.  (Use ".option noopiter" to skip.)
Starting Gmin stepping
Gmin = 10
Gmin = 1.07374
Gmin = 0.115292
Gmin = 0.0123794
Gmin = 0.00132923
Gmin = 0.000142725
Gmin = 1.5325e-005
Gmin = 1.6455e-006
Gmin = 1.76685e-007
Gmin = 1.89714e-008
Gmin = 2.03704e-009
vernier = 0.5
vernier = 0.25
vernier = 0.125
vernier = 0.0625
vernier = 0.03125
vernier = 0.015625
Gmin = 1.62963e-009
vernier = 0.0078125
vernier = 0.00390625
Gmin = 1.59972e-009
vernier = 0.00520833
vernier = 0.00694444
Gmin = 1.5787e-009
vernier = 0.00925925
Gmin = 1.54618e-009
vernier = 0.0123457
vernier = 0.0164609
Gmin = 1.49313e-009
vernier = 0.0219478
vernier = 0.0292638
Gmin = 1.41234e-009
vernier = 0.0390184
Gmin = 1.29414e-009
vernier = 0.0520245
vernier = 0.0693659
Gmin = 1.118e-009
vernier = 0.0924879
vernier = 0.123317
Gmin = 8.86279e-010
vernier = 0.164423
Gmin = 6.16389e-010
vernier = 0.21923
vernier = 0.292307
Gmin = 3.37514e-010
vernier = 0.389743
vernier = 0.519657
Gmin = 1.31421e-010
vernier = 0.692876
Gmin = 3.09178e-011
vernier = 0.923834
vernier = 1
Gmin = 3.64006e-012
Gmin = 3.90848e-013
Gmin = 0
Gmin stepping succeeded in finding the operating point.


Date: Thu Jan 21 12:40:47 2016
Total elapsed time: 0.399 seconds.

tnom = 27
temp = 27
method = modified trap
totiter = 14274
traniter = 12374
tranpoints = 3221
accept = 2513
rejected = 708
matrix size = 59
fillins = 57
solver = Normal
Matrix Compiler1: 5.47 KB object code size  1.2/0.5/[0.3]
Matrix Compiler2: off  [0.5]/1.0/0.6


