Circuit: * C:\Users\jcasa\Documents\projects\ArdaraClone\spice\Draft11.asc

Direct Newton iteration failed to find .op point.  (Use ".option noopiter" to skip.)
Starting Gmin stepping
Gmin = 10
Gmin = 1.07374
Gmin = 0.115292
Gmin = 0.0123794
Gmin = 0.00132923
Gmin = 0.000142725
Gmin = 1.5325e-005
Gmin = 1.6455e-006
Gmin = 1.76685e-007
Gmin = 1.89714e-008
Gmin = 2.03704e-009
vernier = 0.5
vernier = 0.25
Gmin = 6.28231e-010
vernier = 0.125
vernier = 0.0625
vernier = 0.03125
vernier = 0.015625
Gmin = 6.49595e-010
vernier = 0.0078125
vernier = 0.00390625
vernier = 0.00520833
Gmin = 6.45591e-010
vernier = 0.00694444
Gmin = 6.35866e-010
vernier = 0.00925925
vernier = 0.0123457
Gmin = 6.20258e-010
vernier = 0.0164609
vernier = 0.0219478
Gmin = 5.9632e-010
vernier = 0.0292638
Gmin = 5.59459e-010
vernier = 0.0390184
vernier = 0.0520245
Gmin = 5.04048e-010
vernier = 0.0693659
vernier = 0.0924879
Gmin = 4.27472e-010
vernier = 0.123317
Gmin = 3.27595e-010
vernier = 0.164423
vernier = 0.21923
Gmin = 2.12648e-010
vernier = 0.292307
vernier = 0.389743
Gmin = 1.08138e-010
vernier = 0.519657
Gmin = 3.68854e-011
vernier = 0.692876
vernier = 0.923834
Gmin = 6.71127e-012
vernier = 1
Gmin = 7.54578e-013
Gmin = 0
Gmin = 0
Gmin stepping succeeded in finding the operating point.


Date: Wed Feb 03 10:56:32 2016
Total elapsed time: 1.367 seconds.

tnom = 27
temp = 27
method = modified trap
totiter = 129856
traniter = 128000
tranpoints = 37099
accept = 23841
rejected = 13258
matrix size = 43
fillins = 59
solver = Normal
Matrix Compiler1: 4.86 KB object code size  0.9/0.4/[0.3]
Matrix Compiler2: off  [0.3]/0.6/0.8


