Circuit: * C:\Users\jcasa\Documents\projects\ArdaraClone\spice\Draft11.asc

Direct Newton iteration failed to find .op point.  (Use ".option noopiter" to skip.)
Starting Gmin stepping
Gmin = 10
Gmin = 1.07374
Gmin = 0.115292
Gmin = 0.0123794
Gmin = 0.00132923
Gmin = 0.000142725
Gmin = 1.5325e-005
Gmin = 1.6455e-006
Gmin = 1.76685e-007
Gmin = 1.89714e-008
Gmin = 2.03704e-009
vernier = 0.5
vernier = 0.25
Gmin = 5.91277e-010
vernier = 0.125
vernier = 0.0625
vernier = 0.03125
vernier = 0.015625
Gmin = 5.52173e-010
vernier = 0.0078125
vernier = 0.00390625
vernier = 0.00195313
vernier = 0.000976563
vernier = 0.000488281
Gmin = 0
Gmin stepping failed

Starting source stepping with srcstepmethod=0
Source Step = 3.0303%
Source Step = 33.3333%
Source Step = 36.7779%
Source Step = 36.8963%
Source Step = 37.0147%
Source Step = 37.133%
Source Step = 37.2514%
vernier = 0.00585938
Source Step = 37.3816%
Source Step = 37.5592%
Source Step = 37.7367%
Source Step = 37.9143%
Source Step = 38.0919%
vernier = 0.00878906
Source Step = 38.2783%
Source Step = 38.5446%
Source Step = 38.811%
Source Step = 39.0773%
Source Step = 39.3436%
Source Step = 39.61%
vernier = 0.0131836
Source Step = 40.0095%
Source Step = 40.409%
Source Step = 40.8085%
Source Step = 41.208%
Source Step = 41.6075%
vernier = 0.0197754
Source Step = 42.1868%
Source Step = 42.786%
Source Step = 43.3853%
Source Step = 43.9845%
Source Step = 44.5838%
vernier = 0.0296631
Source Step = 45.4227%
Source Step = 46.3216%
Source Step = 47.2205%
Source Step = 48.1194%
Source Step = 49.0183%
vernier = 0.0444946
Source Step = 50.2317%
Source Step = 51.5801%
Source Step = 52.9284%
Source Step = 54.2767%
Source Step = 55.625%
vernier = 0.0667419
Source Step = 57.3779%
Source Step = 59.4003%
Source Step = 61.4228%
Source Step = 63.4453%
Source Step = 65.4678%
vernier = 0.100113
Source Step = 67.9959%
Source Step = 71.0296%
Source Step = 74.0633%
Source Step = 77.0971%
Source Step = 80.1308%
vernier = 0.150169
Source Step = 83.7713%
Source Step = 88.3218%
Source Step = 92.8724%
Source Step = 97.423%
Source stepping succeeded in finding the operating point.


Date: Tue Dec 22 09:34:09 2015
Total elapsed time: 0.546 seconds.

tnom = 27
temp = 27
method = modified trap
totiter = 12535
traniter = 7946
tranpoints = 2299
accept = 1919
rejected = 380
matrix size = 66
fillins = 82
solver = Normal
Matrix Compiler1: 7.03 KB object code size  1.5/0.7/[0.5]
Matrix Compiler2: 6.81 KB object code size  0.6/0.8/[0.6]


