Circuit: * C:\Users\jcasa\Documents\projects\ArdaraClone\spice\Draft11.asc

Direct Newton iteration failed to find .op point.  (Use ".option noopiter" to skip.)
Starting Gmin stepping
Gmin = 10
Gmin = 1.07374
Gmin = 0.115292
Gmin = 0.0123794
Gmin = 0.00132923
Gmin = 0.000142725
Gmin = 1.5325e-005
Gmin = 1.6455e-006
Gmin = 1.76685e-007
Gmin = 1.89714e-008
Gmin = 2.03704e-009
vernier = 0.5
vernier = 0.25
Gmin = 5.91277e-010
vernier = 0.125
vernier = 0.0625
vernier = 0.03125
vernier = 0.015625
vernier = 0.0078125
Gmin = 5.53248e-010
vernier = 0.00390625
vernier = 0.00195313
vernier = 0.000976563
vernier = 0.000488281
Gmin = 0
Gmin stepping failed

Starting source stepping with srcstepmethod=0
Source Step = 3.0303%
Source Step = 33.3333%
Source Step = 35.7955%
Source Step = 36.2689%
Source Step = 36.7424%
Source Step = 37.2159%
Source Step = 37.6894%
vernier = 0.0234375
Source Step = 38.2339%
Source Step = 38.9441%
Source Step = 39.6544%
Source Step = 40.3646%
Source Step = 41.0748%
vernier = 0.0351563
Source Step = 41.8561%
Source Step = 42.9214%
Source Step = 43.9867%
Source Step = 45.0521%
Source Step = 46.1174%
vernier = 0.0527344
Source Step = 47.236%
Source Step = 48.834%
Source Step = 50.4321%
Source Step = 52.0301%
Source Step = 53.6281%
Source Step = 55.2261%
vernier = 0.0791016
Source Step = 57.6231%
Source Step = 60.0201%
Source Step = 62.4171%
Source Step = 64.8142%
Source Step = 67.2112%
vernier = 0.118652
Source Step = 70.6868%
Source Step = 74.2824%
Source Step = 77.8779%
Source Step = 81.4734%
Source Step = 85.069%
vernier = 0.177979
Source Step = 90.1027%
Source Step = 95.496%
Source stepping succeeded in finding the operating point.


Date: Tue Jan 05 16:06:18 2016
Total elapsed time: 12.733 seconds.

tnom = 27
temp = 27
method = modified trap
totiter = 810663
traniter = 806928
tranpoints = 228427
accept = 159476
rejected = 68951
matrix size = 66
fillins = 90
solver = Normal
Matrix Compiler1: 7.65 KB object code size  1.6/0.7/[0.5]
Matrix Compiler2: 6.96 KB object code size  0.6/0.7/[0.5]


