Circuit: * C:\Users\jcasa\Documents\projects\ArdaraClone\spice\opto2.asc

WARNING: Less than two connections to node HV+.  This node is used by V1.
WARNING: Less than two connections to node HV-.  This node is used by V2.
WARNING: Less than two connections to node V-.  This node is used by V5.
Direct Newton iteration for .op point succeeded.

Date: Thu Feb 04 14:18:54 2016
Total elapsed time: 0.093 seconds.

tnom = 27
temp = 27
method = modified trap
totiter = 4673
traniter = 4652
tranpoints = 1627
accept = 1406
rejected = 221
matrix size = 15
fillins = 0
solver = Normal
Matrix Compiler1: 460 bytes object code size  0.5/0.3/[0.2]
Matrix Compiler2: off  [0.3]/0.6/0.4


