Circuit: * C:\Users\jcasa\Documents\projects\ArdaraClone\spice\opto.asc

WARNING: Less than two connections to node HV+.  This node is used by V1.
WARNING: Less than two connections to node HV-.  This node is used by V2.
Direct Newton iteration for .op point succeeded.

Date: Thu Feb 04 14:13:46 2016
Total elapsed time: 0.072 seconds.

tnom = 27
temp = 27
method = modified trap
totiter = 2718
traniter = 2709
tranpoints = 1177
accept = 1116
rejected = 61
matrix size = 20
fillins = 0
solver = Normal
Matrix Compiler1: 978 bytes object code size  0.7/0.3/[0.2]
Matrix Compiler2: 1.40 KB object code size  0.3/0.5/[0.3]


