Circuit: * C:\Users\jcasa\Documents\projects\ArdaraClone\spice\summer.asc

Direct Newton iteration for .op point succeeded.

Date: Mon Dec 21 12:18:21 2015
Total elapsed time: 0.096 seconds.

tnom = 27
temp = 27
method = modified trap
totiter = 2101
traniter = 2084
tranpoints = 1043
accept = 1043
rejected = 0
matrix size = 15
fillins = 5
solver = Normal
Matrix Compiler1:      49 opcodes  0.2/[0.1]/0.1
Matrix Compiler2: off  [0.1]/0.1/0.1


