Circuit: * C:\Users\jcasa\Documents\projects\ArdaraClone\spice\summer.asc

Direct Newton iteration for .op point succeeded.

Date: Fri Mar 25 15:40:58 2016
Total elapsed time: 0.098 seconds.

tnom = 27
temp = 27
method = modified trap
totiter = 2115
traniter = 2092
tranpoints = 1047
accept = 1046
rejected = 1
matrix size = 15
fillins = 5
solver = Normal
Matrix Compiler1: 880 bytes object code size  0.2/0.1/[0.0]
Matrix Compiler2: 1.42 KB object code size  0.2/0.1/[0.1]


