Circuit: * C:\Users\jcasa\Documents\projects\ArdaraClone\spice\summer.asc

Direct Newton iteration for .op point succeeded.

Date: Wed Apr 27 15:07:20 2016
Total elapsed time: 8.083 seconds.

tnom = 27
temp = 27
method = modified trap
totiter = 1278864
traniter = 1278847
tranpoints = 489543
accept = 333491
rejected = 156052
matrix size = 14
fillins = 5
solver = Normal
Matrix Compiler1: 788 bytes object code size  0.2/0.1/[0.0]
Matrix Compiler2:      98 opcodes  0.1/[0.1]/0.2


